---- qbsp / ericw-tools v0.18.1 ----
Input file: zombo.map
Output file: zombo.bsp

---- LoadMapFile ----
*** WARNING 06: No info_player_deathmatch entities in level
           48 faces
            8 brushes
            4 entities
            6 unique texnames
           14 texinfo

Opened WAD: D:/quake-leveldesign-starterkit-master/quake-leveldesign-starterkit-master/wads/rogue.wad
Processing hull 0...
---- Brush_LoadEntity ----
            8 brushes
           20 planes
---- CSGFaces ----
           48 brushfaces
           54 csgfaces
           54 mergedfaces
---- SolidBSP ----
           85 split nodes
           29 solid leafs
           57 empty leafs
            0 water leafs
            0 detail leafs
            0 detail illusionary leafs
            0 detail fence leafs
            0 illusionary visblocker leafs
          220 leaffaces
          216 nodefaces
---- Portalize ----
           57 vis leafs
           57 vis clusters
          117 vis portals
---- FillOutside ----
           50 outleafs
---- MergeAll ----
           22 mergefaces
---- SolidBSP ----
           15 split nodes
           10 solid leafs
            6 empty leafs
            0 water leafs
            0 detail leafs
            0 detail illusionary leafs
            0 detail fence leafs
            0 illusionary visblocker leafs
           82 leaffaces
           66 nodefaces
---- Portalize ----
            6 vis leafs
            6 vis clusters
            7 vis portals
---- Tjunc ----
           56 world edges
          220 edge points
           56 edges added by tjunctions
            0 faces added by tjunctions
---- MakeFaceEdges ----
---- GrowRegions ----
Processing hull 1...
*** WARNING 19: No entities in empty space -- no filling performed (hull 1)
Processing hull 2...
*** WARNING 19: No entities in empty space -- no filling performed (hull 2)
---- WriteBSPFile ----
Wrote zombo.bsp
           56 planes             1120
           92 vertexes           1104
           15 nodes               360
            6 texinfo             240
           66 faces              1320
          220 clipnodes          1760
            7 leafs               196
           82 marksurfaces        164
          320 surfedges          1280
          161 edges               644
           17 textures         136752
              lightdata             0
              visdata               0
              entdata             319

0.078 seconds elapsed
Peak memory usage: 726472 (0.7M)
